Version 4
SHEET 1 888 680
WIRE 240 -288 16 -288
WIRE 560 -288 240 -288
WIRE 240 -240 240 -288
WIRE 560 -240 560 -288
WIRE 16 -160 16 -288
WIRE 240 -48 240 -160
WIRE 352 -48 240 -48
WIRE 560 -48 560 -160
WIRE 560 -48 448 -48
WIRE 240 96 240 -48
WIRE 560 96 560 -48
WIRE -160 144 -304 144
WIRE -80 144 -96 144
WIRE 176 144 -80 144
WIRE 656 144 624 144
WIRE 400 192 240 192
WIRE 560 192 400 192
WIRE -304 208 -304 144
WIRE 400 256 400 192
WIRE -80 416 -80 144
WIRE 64 416 -80 416
WIRE 656 416 656 144
WIRE 656 416 128 416
FLAG 400 336 0
FLAG -304 288 0
FLAG 16 -80 0
SYMBOL npn 176 96 R0
SYMATTR InstName Q1
SYMATTR Value PMBTA42
SYMBOL npn 624 96 M0
SYMATTR InstName Q2
SYMATTR Value PMBTA42
SYMBOL res 384 240 R0
SYMATTR InstName R1
SYMATTR Value 2.2k
SYMBOL sym\\voltage -304 192 R0
WINDOW 123 0 0 Left 0
WINDOW 39 0 0 Left 0
SYMATTR InstName V1
SYMATTR Value PULSE(0 5 1m 10n 10n 1m 2m 4)
SYMBOL sym\\voltage 16 -176 R0
WINDOW 123 0 0 Left 0
WINDOW 39 0 0 Left 0
SYMATTR InstName V2
SYMATTR Value 170
SYMBOL res 224 -256 R0
SYMATTR InstName R2
SYMATTR Value 120k
SYMBOL res 544 -256 R0
SYMATTR InstName R3
SYMATTR Value 120k
SYMBOL Misc\\neonbulb 400 -48 R90
WINDOW 0 -32 0 VBottom 2
SYMATTR InstName U2
SYMATTR Value2 Vstrike=90 Vhold=60
SYMATTR SpiceLine Zon=2K Ihold=700u
SYMATTR SpiceLine2 Tau=10u
SYMBOL Digital\\inv 64 352 R0
WINDOW 3 8 4 Left 2
SYMATTR Value td=50n Vhigh=5
SYMATTR InstName A1
SYMBOL Digital\\inv -160 80 R0
WINDOW 3 8 4 Left 2
SYMATTR Value td=10n Vhigh=5
SYMATTR InstName A2
TEXT 664 -32 Left 2 !.op
TEXT 672 32 Left 2 !.tran 0 8m 1n
