Version 4
SHEET 1 880 756
WIRE 208 -32 -48 -32
WIRE 256 -32 208 -32
WIRE 528 -32 256 -32
WIRE 608 -32 528 -32
WIRE 256 0 256 -32
WIRE 384 0 336 0
WIRE 160 32 80 32
WIRE 208 48 208 -32
WIRE 160 64 160 32
WIRE -48 80 -48 -32
WIRE -48 208 -48 160
WIRE 80 208 80 32
WIRE 80 208 -48 208
WIRE 80 224 80 208
WIRE -48 240 -48 208
WIRE 208 240 208 224
WIRE 352 240 208 240
WIRE 208 256 208 240
WIRE 608 256 608 -32
WIRE -112 288 -224 288
WIRE -224 320 -224 288
WIRE 352 320 352 240
WIRE 608 320 608 288
WIRE 608 320 432 320
WIRE 208 368 208 352
WIRE 368 368 208 368
WIRE 432 368 368 368
WIRE 608 368 608 320
WIRE 608 368 576 368
WIRE -48 384 -48 336
WIRE 208 384 208 368
WIRE 608 384 608 368
WIRE 432 400 432 368
WIRE 576 400 576 368
WIRE 576 400 512 400
WIRE 368 416 368 368
WIRE 144 432 96 432
WIRE 96 480 96 432
WIRE 208 512 208 480
WIRE 96 592 96 560
WIRE 96 736 96 672
FLAG 208 512 0
FLAG 384 80 0
FLAG -48 464 0
FLAG -224 400 0
FLAG 96 736 0
FLAG 608 464 0
FLAG 368 480 0
FLAG 528 32 0
DATAFLAG -144 288 ""
DATAFLAG -48 208 ""
DATAFLAG -48 208 ""
DATAFLAG 608 368 ""
SYMBOL npn -112 240 R0
SYMATTR InstName Q1
SYMATTR Value PMBTA42
SYMATTR Prefix X
SYMBOL res -64 368 R0
SYMATTR InstName R1
SYMATTR Value 5.1k
SYMBOL res -64 64 R0
SYMATTR InstName R2
SYMATTR Value 10k
SYMBOL res 192 128 R0
SYMATTR InstName R3
SYMATTR Value 8.2k
SYMBOL sym\\voltage 384 -16 R0
WINDOW 123 0 0 Left 0
WINDOW 39 0 0 Left 0
SYMATTR InstName V1
SYMATTR Value 170
SYMBOL sym\\voltage -224 304 R0
WINDOW 3 -257 -50 Left 2
WINDOW 123 0 0 Left 0
WINDOW 39 0 0 Left 0
SYMATTR Value PULSE(0 5 0.1m 1n 1n 0.5m 1m 3)
SYMATTR InstName V2
SYMBOL pmos 160 144 M180
WINDOW 3 53 60 Left 2
SYMATTR InstName M1
SYMATTR Value BSR92P_L0
SYMATTR Prefix X
SYMBOL npn 144 384 R0
SYMATTR InstName Q2
SYMATTR Value PMBTA42
SYMATTR Prefix X
SYMBOL res 80 464 R0
SYMATTR InstName R5
SYMATTR Value 1k
SYMBOL sym\\voltage 96 576 R0
WINDOW 3 -62 58 Left 2
WINDOW 123 0 0 Left 0
WINDOW 39 0 0 Left 0
SYMATTR Value PULSE(0 5 0.2m 1n 1n 1m 2m 2)
SYMATTR InstName V3
SYMBOL sym\\zener 624 320 R180
WINDOW 0 24 64 Left 2
WINDOW 3 24 0 Left 2
SYMATTR InstName D1
SYMATTR Value BZX384B68
SYMBOL res 592 368 R0
SYMATTR InstName R4
SYMATTR Value 220k
SYMBOL res 448 304 R90
WINDOW 0 0 56 VBottom 2
WINDOW 3 32 56 VTop 2
SYMATTR InstName R6
SYMATTR Value 220k
SYMBOL Misc\\neonbulb 208 304 R0
SYMATTR InstName U1
SYMATTR Value2 Vstrike=160 Vhold=140
SYMATTR SpiceLine Zon=2K Ihold=2m
SYMATTR SpiceLine2 Tau=10u
SYMBOL sym\\zener 384 480 R180
WINDOW 0 24 64 Left 2
WINDOW 3 24 0 Left 2
SYMATTR InstName D2
SYMATTR Value BZX384B68
SYMBOL res 528 384 R90
WINDOW 0 0 56 VBottom 2
WINDOW 3 32 56 VTop 2
SYMATTR InstName R7
SYMATTR Value 1Meg
SYMBOL cap 512 -32 R0
SYMATTR InstName C1
SYMATTR Value 2.2µ
SYMBOL res 352 -16 R90
WINDOW 0 0 56 VBottom 2
WINDOW 3 32 56 VTop 2
SYMATTR InstName R8
SYMATTR Value 20m
TEXT 432 40 Left 2 !.op
TEXT 360 152 Left 2 !.include PMBTA42.TXT
TEXT 400 216 Left 2 !.tran 4m
TEXT 368 120 Left 2 !.lib Pchannel_250V.lib
TEXT 368 184 Left 2 !.temp 25
